Version 4
SHEET 1 1748 680
WIRE -320 32 -496 32
WIRE -304 32 -320 32
WIRE -176 32 -224 32
WIRE 32 32 -176 32
WIRE 160 32 112 32
WIRE 624 32 160 32
WIRE -320 80 -320 32
WIRE -496 96 -496 32
WIRE 160 96 160 32
WIRE -320 208 -320 144
WIRE 160 208 160 160
WIRE -496 400 -496 176
WIRE -320 400 -320 288
WIRE -320 400 -496 400
WIRE 160 400 160 288
WIRE 160 400 -320 400
WIRE -496 432 -496 400
FLAG -496 432 0
FLAG 624 32 OUT
IOPIN 624 32 Out
FLAG -176 32 in
SYMBOL cap 144 96 R0
SYMATTR InstName C1
SYMATTR Value 47µ
SYMBOL cap -336 80 R0
SYMATTR InstName C2
SYMATTR Value 100µ
SYMBOL ind 128 16 R90
WINDOW 0 5 56 VBottom 2
WINDOW 3 32 56 VTop 2
SYMATTR InstName L1
SYMATTR Value 5µ
SYMBOL voltage -496 80 R0
WINDOW 123 0 0 Left 0
WINDOW 39 24 124 Left 2
SYMATTR InstName V1
SYMATTR Value 5
SYMATTR SpiceLine Rser=1
SYMBOL voltage -208 32 R90
WINDOW 0 -32 56 VBottom 2
WINDOW 3 -102 91 VTop 2
SYMATTR InstName V3
SYMATTR Value PWL REPEAT FOREVER (0 0 10u 0.2 10.01u 0) ENDREPEAT
SYMBOL res 144 192 R0
SYMATTR InstName R1
SYMATTR Value 0.1
SYMBOL res -336 192 R0
SYMATTR InstName R2
SYMATTR Value 2
TEXT 48 -56 Left 2 ;.ac dec 100 1Meg 50Meg
TEXT 352 -48 Left 2 !.tran 0 2m 1m
